Circuit: * C:\Projects\design2-transceiver\black-chat\hw\sim\OOK_mod.asc

Direct Newton iteration for .op point succeeded.

Date: Sun Sep 28 21:25:14 2014
Total elapsed time: 0.659 seconds.

tnom = 27
temp = 27
method = modified trap
totiter = 123205
traniter = 123198
tranpoints = 46842
accept = 32716
rejected = 14126
matrix size = 11
fillins = 0
solver = Normal
Matrix Compiler1:      29 opcodes  0.7/[0.2]/0.3
Matrix Compiler2: 773 bytes object code size  0.3/0.5/[0.2]


