Circuit: * C:\Projects\design2-transceiver\black-chat\hw\sim\schmitt_bit_slice.asc

Direct Newton iteration for .op point succeeded.

Date: Thu Nov 13 02:44:14 2014
Total elapsed time: 0.124 seconds.

tnom = 27
temp = 27
method = modified trap
totiter = 3367
traniter = 3359
tranpoints = 1303
accept = 1181
rejected = 122
matrix size = 10
fillins = 1
solver = Normal
Matrix Compiler1:      29 opcodes  0.2/[0.1]/0.1
Matrix Compiler2: 926 bytes object code size  0.1/0.3/[0.1]


