Circuit: * Z:\home\jimbo\Projects\design2-transceiver\black-chat\hw\sim\demod_comparator.asc

Direct Newton iteration failed to find .op point.  (Use ".option noopiter" to skip.)
Starting Gmin stepping
Gmin = 10
Gmin = 1.07374
Gmin = 0.115292
Gmin = 0.0123794
Gmin = 0.00132923
Gmin = 0.000142725
vernier = 0.5
Gmin = 2.66058e-005
vernier = 0.666667
Gmin = 6.58697e-006
vernier = 0.888888
vernier = 1
Gmin = 8.09366e-007
Gmin = 8.6905e-008
Gmin = 9.33136e-009
Gmin = 1.00195e-009
Gmin = 1.07583e-010
Gmin = 1.15517e-011
Gmin = 1.24035e-012
Gmin = 1.33182e-013
Gmin = 0
Gmin stepping succeeded in finding the operating point.


Date: Mon Sep 15 19:19:51 2014
Total elapsed time: 0.117 seconds.

tnom = 27
temp = 27
method = modified trap
totiter = 6264
traniter = 5721
tranpoints = 1744
accept = 1538
rejected = 206
matrix size = 19
fillins = 12
solver = Normal
Matrix Compiler1: 1.29 KB object code size  0.8/0.5/[0.3]
Matrix Compiler2: off  [1.2]/1.6/1.3


