Circuit: * Z:\home\jimbo\Projects\design2-transceiver\black-chat\hw\sim\OOK_demod\tank.asc


Date: Tue Sep 23 14:23:16 2014
Total elapsed time: 0.021 seconds.

tnom = 27
temp = 27
method = trap
totiter = 0
traniter = 0
tranpoints = 0
accept = 0
rejected = 0
matrix size = 3
fillins = 1
solver = Normal

