Circuit: * Z:\home\jimbo\Projects\design2-transceiver\black-chat\hw\sim\Draft2.asc

WARNING: Less than two connections to node N002.  This node is used by D4.
.OP point found by inspection.

Date: Tue Sep 23 00:25:26 2014
Total elapsed time: 0.577 seconds.

tnom = 27
temp = 27
method = modified trap
totiter = 81325
traniter = 81325
tranpoints = 28250
accept = 18217
rejected = 10033
matrix size = 7
fillins = 0
solver = Normal
Matrix Compiler1: 214 bytes object code size  0.5/0.4/[0.4]
Matrix Compiler2: 433 bytes object code size  0.4/0.4/[0.3]


